grid_simulations/tests/Result_no_control/output_current_13.csv
# Result_no_control/output_current_13.csv run at 2000-01-01 13:00:00 EST on 907 links
link_name,currA_mag,currA_angle,currB_mag,currB_angle,currC_mag,currC_angle
Source_Impedance,23.646386,-0.359449,19.262476,3.768300,20.674325,1.892317
TR1,23.646386,-0.359449,19.262476,3.768300,20.674325,1.892317
LINE1,653.756386,-0.835846,584.732608,3.320485,436.147662,1.246061
LINE2,653.756386,-0.835846,584.732608,3.320485,436.147662,1.246061
LINE3,653.756386,-0.835846,584.732608,3.320485,436.147662,1.246061
LINE4,653.756386,-0.835846,584.732608,3.320485,436.147662,1.246061
LINE5,653.756386,-0.835846,584.732608,3.320485,436.147662,1.246061
LINE6,653.756386,-0.835846,584.732608,3.320485,436.147662,1.246061
LINE7,653.756386,-0.835846,584.732608,3.320485,436.147662,1.246061
LINE8,653.756386,-0.835846,584.732608,3.320485,436.147662,1.246061
LINE9,653.756386,-0.835846,584.732608,3.320485,436.147662,1.246061
LINE10,653.756386,-0.835846,584.732608,3.320485,436.147662,1.246061
LINE11,653.756386,-0.835846,584.732608,3.320485,436.147662,1.246061
LINE12,653.756386,-0.835846,584.732608,3.320485,436.147662,1.246061
LINE13,653.756386,-0.835846,584.732608,3.320485,436.147662,1.246061
LINE14,653.756386,-0.835846,584.732608,3.320485,436.147662,1.246061
LINE15,0.000000,4.001728,0.000000,3.623759,0.000000,1.382164
LINE16,653.756386,-0.835846,584.732608,3.320485,436.147662,1.246061
LINE17,0.000000,4.058661,0.000000,3.902059,0.000000,1.360516
LINE18,653.756386,-0.835846,584.732608,3.320485,436.147662,1.246061
LINE19,0.000000,3.644735,0.000000,4.687457,0.000000,1.228809
LINE20,653.756386,-0.835846,584.732608,3.320485,436.147662,1.246061
LINE21,0.000000,3.727387,0.000000,3.902059,0.000000,1.315645
LINE22,653.756386,-0.835846,584.732608,3.320485,436.147662,1.246061
LINE23,0.000000,4.168311,0.000000,3.241016,0.000000,1.429209
LINE24,653.756386,-0.835846,584.732608,3.320485,436.147662,1.246061
LINE25,0.000000,4.306951,0.000000,3.241016,0.000000,1.483446
LINE26,56.648678,-0.859945,0.000000,3.854448,0.000000,1.666039
LINE27,597.125719,-0.833560,584.732608,3.320485,436.147662,1.246061
LINE28,0.000000,4.365707,0.000000,3.361639,0.000000,1.509422
LINE29,28.321702,-0.859968,0.000000,4.052899,0.000000,1.588704
LINE30,28.326976,-0.859922,0.000000,3.852827,0.000000,1.665836
LINE31,597.125719,-0.833560,584.732608,3.320485,436.147662,1.246061
LINE32,0.000000,4.687457,0.000000,3.387608,0.000000,1.520870
LINE33,28.321702,-0.859968,0.000000,3.113968,0.000000,1.358315
LINE34,28.326976,-0.859922,0.000000,0.316825,0.000000,1.785063
LINE35,0.000000,0.073415,57.376767,3.323623,0.000000,4.604592
LINE36,597.125719,-0.833560,527.356154,3.320144,436.147662,1.246061
LINE37,0.000000,4.607627,0.000000,3.511452,0.000000,1.510952
LINE38,28.326976,-0.859922,0.000000,2.756724,0.000000,1.604580
LINE39,0.000000,0.080462,28.688955,3.323628,0.000000,4.595630
LINE40,0.000000,1.840257,28.687811,3.323618,0.000000,4.578523
LINE41,597.125719,-0.833560,527.356154,3.320144,436.147662,1.246061
LINE42,0.000000,4.131171,0.000000,0.791180,0.000000,1.965452
LINE43,0.000000,4.306951,0.000000,4.687457,0.000000,1.520870
LINE44,28.326976,-0.859922,0.000000,0.431954,0.000000,1.535300
LINE45,0.000000,0.238885,28.688955,3.323628,0.000000,4.612157
LINE46,0.000000,-0.051687,28.687811,3.323618,0.000000,1.504884
LINE47,597.125719,-0.833560,527.356154,3.320144,436.147662,1.246061
LINE48,0.000000,3.678737,0.000000,0.560707,0.000000,2.170478
LINE49,0.000000,3.902059,0.000000,0.000000,0.000000,1.504222
LINE50,28.326976,-0.859922,0.000000,0.722985,0.000000,1.576391
LINE51,0.000000,0.266534,28.688955,3.323628,0.000000,4.628876
LINE52,597.125719,-0.833560,527.356154,3.320144,436.147662,1.246061
LINE53,0.000000,0.170065,0.000000,3.512559,0.000000,-1.518411
LINE54,0.000000,4.648255,0.000000,0.890062,0.000000,1.989429
LINE55,0.000000,4.687457,0.000000,3.361639,0.000000,1.452388
LINE56,28.326976,-0.859922,0.000000,2.799476,0.000000,4.527100
LINE57,0.000000,0.066453,28.688955,3.323628,0.000000,4.534462
LINE58,597.125719,-0.833560,527.356154,3.320144,436.147662,1.246061
LINE59,0.000000,-0.428603,0.000000,3.412515,0.000000,-1.520854
LINE60,0.000000,3.960171,0.000000,0.683370,0.000000,1.873328
LINE61,0.000000,4.365707,0.000000,3.760162,0.000000,1.493828
LINE62,28.326976,-0.859922,0.000000,0.396501,0.000000,4.704255
LINE63,0.000000,-0.143172,28.688955,3.323628,0.000000,4.615372
LINE64,538.055429,-0.831853,527.356154,3.320144,436.147662,1.246061
LINE65,59.078213,-0.849107,0.000000,0.457989,0.000000,-0.526146
LINE66,0.000000,2.191667,0.000000,2.448473,0.000000,-1.495255
LINE67,0.000000,-1.002404,0.000000,0.783227,0.000000,1.952489
LINE68,0.000000,4.687457,0.000000,3.704663,0.000000,1.462723
LINE69,28.326976,-0.859922,0.000000,-1.085004,0.000000,4.600290
LINE70,0.000000,3.011107,28.688955,3.323628,0.000000,4.498227
LINE71,538.055429,-0.831853,527.356154,3.320144,436.147662,1.246061
LINE72,29.539106,-0.849107,0.000000,-1.063369,0.000000,-1.513712
LINE73,29.539106,-0.849107,0.000000,-1.062656,0.000000,4.693304
LINE74,0.000000,4.476241,0.000000,2.842511,0.000000,-1.442565
LINE75,0.000000,4.545530,0.000000,0.573775,0.000000,2.284423
LINE76,0.000000,4.381578,0.000000,3.361639,0.000000,1.489284
LINE77,0.000000,-0.187719,28.688955,3.323628,0.000000,4.687182
LINE78,538.055429,-0.831853,527.356154,3.320144,436.147662,1.246061
LINE79,0.000000,2.942645,0.000000,2.962090,0.000000,4.434000
LINE80,0.000000,-1.323924,0.000000,0.591946,0.000000,2.320896
LINE81,0.000000,4.460658,0.000000,3.361639,0.000000,1.474804
LINE82,0.000000,2.655841,28.688955,3.323628,0.000000,1.376520
LINE83,538.055429,-0.831853,527.356154,3.320144,436.147662,1.246061
LINE84,0.000000,3.441520,0.000000,1.519551,0.000000,-1.530125
LINE85,0.000000,-1.507793,0.000000,0.577174,0.000000,2.402219
LINE86,0.000000,4.687457,0.000000,3.265551,0.000000,1.491231
LINE87,538.055429,-0.831853,527.356154,3.320144,436.147662,1.246061
LINE88,0.000000,2.939962,0.000000,2.939962,0.000000,-0.144492
LINE89,0.000000,4.661359,0.000000,0.518553,0.000000,2.417101
LINE90,0.000000,-1.350750,0.000000,3.580308,0.000000,1.431779
LINE91,538.055429,-0.831853,527.356154,3.320144,436.147662,1.246061
LINE92,0.000000,-0.682004,0.000000,0.665668,0.000000,2.161538
LINE93,0.000000,-0.488580,0.000000,3.116661,0.000000,1.483446
LINE94,538.055429,-0.831853,527.356154,3.320144,436.147662,1.246061
LINE95,0.000000,3.948531,0.000000,0.868795,0.000000,1.518450
LINE96,0.000000,4.687457,0.000000,1.545864,0.000000,3.116661
LINE97,538.055429,-0.831853,527.356154,3.320144,436.147662,1.246061
LINE98,0.000000,3.413862,0.000000,1.605790,0.000000,1.956695
LINE99,0.000000,3.116661,0.000000,0.000000,0.000000,-0.024932
LINE100,538.055429,-0.831853,527.356154,3.320144,436.147662,1.246061
LINE101,0.000000,3.604224,0.000000,2.539039,0.000000,1.750506
LINE102,0.000000,0.000000,0.000000,0.000000,0.000000,0.000000
LINE103,29.966983,-0.845517,89.599287,3.324562,57.353280,1.243316
LINE104,508.091409,-0.831047,437.757921,3.319240,378.794631,1.246477
LINE105,0.000000,4.198493,0.000000,2.621417,0.000000,1.723264
LINE106,29.966983,-0.845517,89.599287,3.324562,57.353280,1.243316
LINE107,508.091409,-0.831047,437.757921,3.319240,378.794631,1.246477
LINE108,0.000000,3.844899,0.000000,2.550081,0.000000,1.479071
LINE109,29.966983,-0.845517,89.599287,3.324562,57.353280,1.243316
LINE110,508.091409,-0.831047,437.757921,3.319240,378.794631,1.246477
LINE111,0.000000,3.973366,0.000000,2.476836,0.000000,1.536897
LINE112,29.966983,-0.845517,89.599287,3.324562,57.353280,1.243316
LINE113,508.091409,-0.831047,437.757921,3.319240,378.794631,1.246477
LINE114,0.000000,3.979558,0.000000,2.469181,0.000000,1.535193
LINE115,29.966983,-0.845517,89.599287,3.324562,57.353280,1.243316
LINE116,30.241499,-0.843608,60.139035,3.324836,57.630110,1.244606
LINE117,477.852447,-0.830252,377.619978,3.318348,321.164640,1.246812
LINE118,0.000000,3.939013,0.000000,2.494491,0.000000,1.508737
LINE119,29.966983,-0.845517,89.599287,3.324562,57.353280,1.243316
LINE120,0.000000,2.421922,0.000000,0.140217,0.000000,1.530241
LINE121,30.241499,-0.843608,60.139035,3.324836,57.630110,1.244606
LINE122,477.852447,-0.830252,377.619978,3.318348,321.164640,1.246812
LINE123,0.000000,3.985450,0.000000,2.582902,0.000000,1.542139
LINE124,29.966983,-0.845517,89.599287,3.324562,57.353280,1.243316
LINE125,0.000000,2.421922,0.000000,-0.024932,0.000000,1.556281
LINE126,30.241499,-0.843608,60.139035,3.324836,57.630110,1.244606
LINE127,477.852447,-0.830252,377.619978,3.318348,321.164640,1.246812
LINE128,0.000000,3.956660,0.000000,2.512740,0.000000,1.501031
LINE129,29.966983,-0.845517,89.599287,3.324562,57.353280,1.243316
LINE130,0.000000,2.473160,0.000000,0.140217,0.000000,1.561488
LINE131,30.241499,-0.843608,0.000000,3.921142,0.000000,1.515608
LINE132,0.000000,2.490793,60.139035,3.324836,57.630110,1.244606
LINE133,477.852447,-0.830252,377.619978,3.318348,321.164640,1.246812
LINE134,0.000000,3.951407,0.000000,2.515777,0.000000,1.592278
LINE135,29.966983,-0.845517,89.599287,3.324562,57.353280,1.243316
LINE136,0.000000,2.558061,0.000000,-0.124601,0.000000,1.571900
LINE137,30.241499,-0.843608,0.000000,3.827547,0.000000,1.516271
LINE138,0.000000,2.489715,60.139035,3.324836,57.630110,1.244606
LINE139,477.852447,-0.830252,377.619978,3.318348,321.164640,1.246812
LINE140,0.000000,3.952453,0.000000,2.489560,0.000000,1.667770
LINE141,29.966983,-0.845517,89.599287,3.324562,57.353280,1.243316
LINE142,0.000000,2.653013,0.000000,-0.124601,0.000000,1.571900
LINE143,30.241499,-0.843608,0.000000,3.939397,0.000000,1.521975
LINE144,0.000000,2.484636,60.139035,3.324836,57.630110,1.244606
LINE145,477.852447,-0.830252,377.619978,3.318348,321.164640,1.246812
LINE146,0.000000,4.042892,0.000000,2.389590,0.000000,1.479678
LINE147,29.966983,-0.845517,89.599287,3.324562,57.353280,1.243316
LINE148,0.000000,2.528658,0.000000,0.296819,0.000000,3.116661
LINE149,30.241499,-0.843608,0.000000,4.009307,0.000000,1.521162
LINE150,0.000000,2.515725,0.000000,0.464198,57.630110,1.244606
LINE151,0.000000,2.108984,60.139035,3.324836,0.000000,1.694273
LINE152,477.852447,-0.830252,377.619978,3.318348,321.164640,1.246812
LINE153,0.000000,3.603115,0.000000,2.785430,0.000000,-0.852412
LINE154,29.966983,-0.845517,89.599287,3.324562,57.353280,1.243316
LINE155,0.000000,2.653013,0.000000,-0.024932,0.000000,3.116661
LINE156,30.241499,-0.843608,0.000000,3.963304,0.000000,1.528227
LINE157,0.000000,2.520286,0.000000,0.460998,57.630110,1.244606
LINE158,0.000000,2.102018,60.139035,3.324836,0.000000,1.691448
LINE159,477.852447,-0.830252,377.619978,3.318348,321.164640,1.246812
LINE160,0.000000,3.898805,0.000000,-0.553190,0.000000,2.316750
LINE161,0.000000,2.847532,29.798121,3.324368,0.000000,4.653266
LINE162,29.966983,-0.845517,59.801166,3.324659,57.353280,1.243316
LINE163,0.000000,3.116661,0.000000,-0.149287,0.000000,3.116661
LINE164,30.241499,-0.843608,0.000000,4.005755,0.000000,1.533178
LINE165,0.000000,2.522856,0.000000,0.465432,57.630110,1.244606
LINE166,0.000000,1.936831,60.139035,3.324836,0.000000,1.750168
LINE167,477.852447,-0.830252,377.619978,3.318348,321.164640,1.246812
LINE168,0.000000,-0.498324,0.000000,-0.498324,0.000000,2.786470
LINE169,0.000000,3.186417,29.798121,3.324368,0.000000,4.629002
LINE170,29.966983,-0.845517,59.801166,3.324659,57.353280,1.243316
LINE171,0.000000,2.473160,0.000000,0.099423,0.000000,-0.024932
LINE172,30.241499,-0.843608,0.000000,4.013141,0.000000,1.529365
LINE173,0.000000,2.565234,0.000000,0.374855,0.000000,-0.836113
LINE174,0.000000,-0.058892,0.000000,2.946070,57.630110,1.244606
LINE175,0.000000,2.214594,60.139035,3.324836,0.000000,1.821453
LINE176,477.852447,-0.830252,377.619978,3.318348,321.164640,1.246812
LINE177,0.000000,1.846813,29.798121,3.324368,0.000000,1.186488
LINE178,29.966983,-0.845517,59.801166,3.324659,0.000000,-1.040835
LINE179,0.000000,2.435322,0.000000,3.370813,57.353280,1.243316
LINE180,0.000000,2.992306,0.000000,-0.488580,0.000000,1.514625
LINE181,30.241499,-0.843608,0.000000,4.098742,0.000000,1.525465
LINE182,0.000000,2.565317,0.000000,0.332271,0.000000,-0.825683
LINE183,0.000000,-0.095663,0.000000,2.989617,57.630110,1.244606
LINE184,0.000000,1.612462,60.139035,3.324836,0.000000,2.413136
LINE185,477.852447,-0.830252,377.619978,3.318348,321.164640,1.246812
LINE186,29.966983,-0.845517,59.801166,3.324659,0.000000,-0.975251
LINE187,0.000000,2.456839,0.000000,3.363834,57.353280,1.243316
LINE188,0.000000,2.871682,0.000000,-0.269911,0.000000,-0.024932
LINE189,30.241499,-0.843608,0.000000,4.118241,0.000000,1.534200
LINE190,0.000000,1.941628,0.000000,0.636273,0.000000,4.451225
LINE191,0.000000,2.709913,0.000000,0.489253,0.000000,-0.647694
LINE192,0.000000,-0.016354,0.000000,2.954495,57.630110,1.244606
LINE193,0.000000,1.967942,60.139035,3.324836,0.000000,2.178898
LINE194,477.852447,-0.830252,377.619978,3.318348,321.164640,1.246812
LINE195,29.966983,-0.845517,59.801166,3.324659,0.000000,-1.109418
LINE196,0.000000,-1.319737,0.000000,2.830959,28.674043,1.243294
LINE197,0.000000,2.428368,0.000000,3.362899,28.679237,1.243339
LINE198,0.000000,1.545864,0.000000,-0.024932,0.000000,-0.024932
LINE199,30.241499,-0.843608,0.000000,4.052170,0.000000,1.537806
LINE200,0.000000,-1.140690,0.000000,-0.275260,0.000000,1.951748
LINE201,0.000000,2.524859,0.000000,0.404531,0.000000,-0.843923
LINE202,0.000000,0.070169,0.000000,2.811632,57.630110,1.244606
LINE203,0.000000,2.057867,60.139035,3.324836,0.000000,1.877871
LINE204,477.852447,-0.830252,377.619978,3.318348,321.164640,1.246812
LINE205,29.966983,-0.845517,0.000000,3.229028,0.000000,1.351047
LINE206,0.000000,-0.203434,59.801166,3.324659,0.000000,-0.992693
LINE207,0.000000,-0.336685,0.000000,-0.117330,28.674043,1.243294
LINE208,0.000000,2.594597,0.000000,3.403756,28.679237,1.243339
LINE209,0.000000,0.000000,0.000000,0.957862,0.000000,4.708287
LINE210,30.241499,-0.843608,0.000000,4.081957,0.000000,1.543705
LINE211,0.000000,2.495583,0.000000,0.854191,0.000000,-0.803340
LINE212,0.000000,0.093773,0.000000,2.645284,57.630110,1.244606
LINE213,0.000000,2.220545,60.139035,3.324836,0.000000,1.801095
LINE214,477.852447,-0.830252,377.619978,3.318348,321.164640,1.246812
LINE215,29.966983,-0.845517,0.000000,0.096745,0.000000,1.626946
LINE216,0.000000,-0.798111,59.801166,3.324659,0.000000,-0.895928
LINE217,0.000000,2.764167,0.000000,3.570135,28.679237,1.243339
LINE218,0.000000,0.000000,0.000000,0.000000,0.000000,3.116661
LINE219,30.241499,-0.843608,0.000000,4.026578,0.000000,1.544646
LINE220,0.000000,2.666345,0.000000,0.180745,0.000000,-0.218858
LINE221,0.000000,0.126869,0.000000,2.708149,57.630110,1.244606
LINE222,0.000000,2.177087,60.139035,3.324836,0.000000,1.762421
LINE223,477.852447,-0.830252,377.619978,3.318348,321.164640,1.246812
LINE224,29.966983,-0.845517,0.000000,1.454042,0.000000,-1.404386
LINE225,0.000000,-0.370251,59.801166,3.324659,0.000000,-0.912723
LINE226,0.000000,1.909690,0.000000,3.656776,28.679237,1.243339
LINE227,30.241499,-0.843608,0.000000,3.996798,0.000000,1.562307
LINE228,0.000000,2.562550,0.000000,0.751617,0.000000,-0.566401
LINE229,0.000000,0.060342,0.000000,2.673172,57.630110,1.244606
LINE230,0.000000,1.484424,60.139035,3.324836,0.000000,1.749328
LINE231,477.852447,-0.830252,377.619978,3.318348,321.164640,1.246812
LINE232,0.000000,0.215320,59.801166,3.324659,0.000000,1.705506
LINE233,0.000000,-0.309202,0.000000,0.603550,0.000000,0.530759
LINE234,0.000000,3.174744,0.000000,4.155427,28.679237,1.243339
LINE235,30.241499,-0.843608,0.000000,3.770334,0.000000,1.570350
LINE236,0.000000,2.819052,0.000000,0.875926,0.000000,0.059808
LINE237,0.000000,-0.060854,0.000000,2.805347,57.630110,1.244606
LINE238,0.000000,1.356205,60.139035,3.324836,0.000000,1.775170
LINE239,477.852447,-0.830252,377.619978,3.318348,321.164640,1.246812
LINE240,0.000000,0.060347,59.801166,3.324659,0.000000,1.559535
LINE241,0.000000,2.164137,0.000000,2.937738,28.679237,1.243339
LINE242,30.241499,-0.843608,0.000000,4.678349,0.000000,4.664815
LINE243,0.000000,3.843509,0.000000,2.025908,0.000000,0.180615
LINE244,0.000000,-0.135051,0.000000,2.782747,57.630110,1.244606
LINE245,0.000000,1.512792,60.139035,3.324836,0.000000,1.858292
LINE246,477.852447,-0.830252,377.619978,3.318348,321.164640,1.246812
LINE247,0.000000,2.424124,29.900583,3.324659,0.000000,4.704814
LINE248,0.000000,2.424376,29.900583,3.324659,0.000000,-1.510281
LINE249,0.000000,3.263053,0.000000,-0.539531,28.679237,1.243339
LINE250,30.241499,-0.843608,0.000000,3.177364,0.000000,4.653934
LINE251,0.000000,1.708626,0.000000,1.187459,0.000000,0.534297
LINE252,0.000000,0.004812,0.000000,2.631685,57.630110,1.244606
LINE253,0.000000,1.719430,60.139035,3.324836,0.000000,1.832441
LINE254,30.855025,-0.840730,0.000000,-0.662288,0.000000,4.592751
LINE255,446.999233,-0.829528,377.619978,3.318348,321.164640,1.246812
LINE256,0.000000,-1.177381,0.000000,0.935088,28.679237,1.243339
LINE257,30.241499,-0.843608,0.000000,4.008866,0.000000,4.317370
LINE258,0.000000,0.794140,0.000000,-1.096904,0.000000,0.972316
LINE259,0.000000,0.065461,0.000000,2.671431,57.630110,1.244606
LINE260,0.000000,0.711994,60.139035,3.324836,0.000000,1.787609
LINE261,30.855025,-0.840730,0.000000,-0.766115,0.000000,4.609741
LINE262,446.999233,-0.829528,377.619978,3.318348,321.164640,1.246812
LINE263,0.000000,1.297212,0.000000,0.224566,28.679237,1.243339
LINE264,30.241499,-0.843608,0.000000,3.327398,0.000000,4.417666
LINE265,0.000000,0.542132,0.000000,4.581279,0.000000,1.098138
LINE266,0.000000,0.012811,0.000000,2.646697,57.630110,1.244606
LINE267,0.000000,3.082879,30.074224,3.324875,0.000000,1.599975
LINE268,0.000000,0.850633,30.064811,3.324797,0.000000,1.908642
LINE269,30.855025,-0.840730,0.000000,-0.900790,0.000000,4.652515
LINE270,0.000000,2.017500,0.000000,-0.044826,28.986887,1.247032
LINE271,446.999233,-0.829528,377.619978,3.318348,292.177753,1.246791
LINE272,30.241499,-0.843608,0.000000,3.417887,0.000000,2.097051
LINE273,0.000000,0.442659,0.000000,3.032709,0.000000,2.238437
LINE274,0.000000,0.006349,0.000000,2.395075,57.630110,1.244606
LINE275,0.000000,3.262251,30.074224,3.324875,0.000000,4.589203
LINE276,0.000000,2.551493,30.064811,3.324797,0.000000,1.886332
LINE277,30.855025,-0.840730,0.000000,-0.428299,0.000000,4.642419
LINE278,0.000000,-0.092863,0.000000,0.046709,28.986887,1.247032
LINE279,446.999233,-0.829528,377.619978,3.318348,292.177753,1.246791
LINE280,30.241499,-0.843608,0.000000,3.339822,0.000000,4.576407
LINE281,0.000000,1.253302,0.000000,4.595442,0.000000,1.922328
LINE282,0.000000,0.162496,0.000000,1.989912,57.630110,1.244606
LINE283,0.000000,1.117200,30.064811,3.324797,0.000000,1.916160
LINE284,30.855025,-0.840730,0.000000,-0.220580,0.000000,4.639122
LINE285,0.000000,-0.129497,0.000000,-0.856728,28.986887,1.247032
LINE286,223.630337,-0.828118,125.455871,3.314193,57.852473,1.248087
LINE287,223.369341,-0.830941,252.165729,3.320416,234.325341,1.246470
LINE288,30.241499,-0.843608,0.000000,-0.316191,0.000000,2.965863
LINE289,0.000000,-0.631393,0.000000,3.217584,0.000000,4.077225
LINE290,0.000000,2.613654,0.000000,3.185834,28.822595,1.244670
LINE291,0.000000,-0.247449,0.000000,1.353370,28.807514,1.244541
LINE292,0.000000,4.245300,30.064811,3.324797,0.000000,4.434922
LINE293,30.855025,-0.840730,0.000000,-0.301169,0.000000,4.615070
LINE294,0.000000,-0.081142,0.000000,4.357327,28.986887,1.247032
LINE295,223.630337,-0.828118,125.455871,3.314193,57.852473,1.248087
LINE296,223.369341,-0.830941,252.165729,3.320416,234.325341,1.246470
LINE297,0.000000,0.015362,0.000000,3.395007,28.822595,1.244670
LINE298,0.000000,-1.185684,0.000000,1.327261,28.807514,1.244541
LINE299,0.000000,-0.072231,30.064811,3.324797,0.000000,-1.473853
LINE300,30.855025,-0.840730,0.000000,-0.366315,0.000000,4.628231
LINE301,0.000000,-0.170069,0.000000,4.680958,28.986887,1.247032
LINE302,223.630337,-0.828118,125.455871,3.314193,57.852473,1.248087
LINE303,223.369341,-0.830941,252.165729,3.320416,234.325341,1.246470
LINE304,0.000000,2.199530,0.000000,2.454118,28.822595,1.244670
LINE305,0.000000,4.253773,0.000000,0.432689,28.807514,1.244541
LINE306,0.000000,4.024170,30.064811,3.324797,0.000000,1.448873
LINE307,30.855025,-0.840730,0.000000,-0.788689,0.000000,4.587983
LINE308,0.000000,-0.558285,0.000000,4.544022,28.986887,1.247032
LINE309,223.630337,-0.828118,125.455871,3.314193,57.852473,1.248087
LINE310,223.369341,-0.830941,252.165729,3.320416,234.325341,1.246470
LINE311,0.000000,2.624527,0.000000,1.361320,28.822595,1.244670
LINE312,0.000000,4.426715,0.000000,0.302241,28.807514,1.244541
LINE313,0.000000,2.838561,30.064811,3.324797,0.000000,0.746671
LINE314,30.855025,-0.840730,0.000000,-0.727336,0.000000,4.569619
LINE315,0.000000,-0.873814,0.000000,-1.358333,28.986887,1.247032
LINE316,62.493712,-0.837615,0.000000,-0.211609,0.000000,1.120106
LINE317,161.140536,-0.824435,125.455871,3.314193,57.852473,1.248087
LINE318,223.369341,-0.830941,252.165729,3.320416,234.325341,1.246470
LINE319,0.000000,0.217444,0.000000,1.003757,28.822595,1.244670
LINE320,0.000000,3.395598,0.000000,3.141933,28.807514,1.244541
LINE321,30.855025,-0.840730,0.000000,-0.720876,0.000000,4.548875
LINE322,0.000000,0.821562,0.000000,-0.669331,28.986887,1.247032
LINE323,62.493712,-0.837615,0.000000,-0.220137,0.000000,1.130651
LINE324,161.140536,-0.824435,125.455871,3.314193,57.852473,1.248087
LINE325,223.369341,-0.830941,252.165729,3.320416,234.325341,1.246470
LINE326,0.000000,3.257832,0.000000,-0.201412,28.807514,1.244541
LINE327,30.855025,-0.840730,0.000000,-0.578179,0.000000,2.692916
LINE328,0.000000,2.874915,0.000000,0.919597,28.986887,1.247032
LINE329,62.493712,-0.837615,0.000000,-0.225145,0.000000,1.168369
LINE330,0.000000,-0.163189,0.000000,3.616960,28.984859,1.248249
LINE331,161.140536,-0.824435,125.455871,3.314193,28.867615,1.247924
LINE332,223.369341,-0.830941,252.165729,3.320416,234.325341,1.246470
LINE333,30.855025,-0.840730,0.000000,-0.633241,0.000000,1.956428
LINE334,0.000000,-1.261611,0.000000,-1.261611,28.986887,1.247032
LINE335,62.493712,-0.837615,0.000000,-0.240028,0.000000,1.263874
LINE336,0.000000,0.287418,0.000000,3.006459,28.984859,1.248249
LINE337,0.000000,0.321284,30.795674,3.317541,0.000000,1.547803
LINE338,161.140536,-0.824435,94.660426,3.313104,28.867615,1.247924
LINE339,223.369341,-0.830941,252.165729,3.320416,234.325341,1.246470
LINE340,30.855025,-0.840730,0.000000,-0.567865,0.000000,1.834430
LINE341,0.000000,3.100948,0.000000,0.669483,28.986887,1.247032
LINE342,31.238418,-0.837681,0.000000,-0.372876,0.000000,-1.496371
LINE343,31.255295,-0.837548,0.000000,-0.274797,0.000000,1.391898
LINE344,0.000000,0.322998,30.795674,3.317541,0.000000,1.547599
LINE345,161.140536,-0.824435,94.660426,3.313104,28.867615,1.247924
LINE346,223.369341,-0.830941,252.165729,3.320416,234.325341,1.246470
LINE347,30.855025,-0.840730,0.000000,-0.648870,0.000000,1.665487
LINE348,31.238418,-0.837681,0.000000,2.906509,0.000000,-1.553162
LINE349,31.255295,-0.837548,0.000000,-0.370981,0.000000,1.537508
LINE350,0.000000,0.570138,30.795674,3.317541,0.000000,1.541767
LINE351,161.140536,-0.824435,94.660426,3.313104,28.867615,1.247924
LINE352,223.369341,-0.830941,252.165729,3.320416,234.325341,1.246470
LINE353,30.855025,-0.840730,0.000000,-1.223176,0.000000,1.617140
LINE354,31.255295,-0.837548,0.000000,-0.131633,0.000000,1.482627
LINE355,0.000000,0.954582,30.795674,3.317541,0.000000,1.520888
LINE356,161.140536,-0.824435,94.660426,3.313104,28.867615,1.247924
LINE357,223.369341,-0.830941,252.165729,3.320416,234.325341,1.246470
LINE358,30.855025,-0.840730,0.000000,4.710486,0.000000,1.639426
LINE359,31.255295,-0.837548,0.000000,0.075694,0.000000,1.583749
LINE360,0.000000,-0.037212,30.795674,3.317541,0.000000,1.517670
LINE361,161.140536,-0.824435,94.660426,3.313104,28.867615,1.247924
LINE362,223.369341,-0.830941,252.165729,3.320416,234.325341,1.246470
LINE363,30.855025,-0.840730,0.000000,3.423146,0.000000,1.780142
LINE364,31.255295,-0.837548,0.000000,-0.252283,0.000000,4.700171
LINE365,0.000000,1.906990,30.795674,3.317541,0.000000,-0.570540
LINE366,161.140536,-0.824435,94.660426,3.313104,28.867615,1.247924
LINE367,223.369341,-0.830941,252.165729,3.320416,234.325341,1.246470
LINE368,30.855025,-0.840730,0.000000,4.469189,0.000000,1.656049
LINE369,31.255295,-0.837548,0.000000,2.850830,0.000000,-1.381786
LINE370,0.000000,3.206532,30.795674,3.317541,0.000000,1.539682
LINE371,161.140536,-0.824435,94.660426,3.313104,28.867615,1.247924
LINE372,223.369341,-0.830941,252.165729,3.320416,234.325341,1.246470
LINE373,30.855025,-0.840730,0.000000,1.309400,0.000000,1.759453
LINE374,31.255295,-0.837548,0.000000,1.977574,0.000000,2.624628
LINE375,0.000000,4.436673,30.795674,3.317541,0.000000,1.649959
LINE376,161.140536,-0.824435,94.660426,3.313104,28.867615,1.247924
LINE377,223.369341,-0.830941,252.165729,3.320416,205.216178,1.246335
LINE378,0.000000,2.177564,0.000000,0.495052,29.109178,1.247428
LINE379,30.855025,-0.840730,0.000000,2.850945,0.000000,-1.566759
LINE380,31.255295,-0.837548,0.000000,-0.596324,0.000000,4.652670
LINE381,0.000000,-0.497735,30.795674,3.317541,0.000000,1.700872
LINE382,161.140536,-0.824435,94.660426,3.313104,28.867615,1.247924
LINE383,223.369341,-0.830941,252.165729,3.320416,205.216178,1.246335
LINE384,0.000000,0.027423,0.000000,3.540518,29.109178,1.247428
LINE385,0.000000,2.657110,0.000000,0.442336,0.000000,-1.203231
LINE386,30.855025,-0.840730,0.000000,3.922064,0.000000,4.687680
LINE387,31.255295,-0.837548,0.000000,3.394134,0.000000,-1.542673
LINE388,0.000000,-1.424892,30.795674,3.317541,0.000000,1.603849
LINE389,161.140536,-0.824435,94.660426,3.313104,28.867615,1.247924
LINE390,223.369341,-0.830941,252.165729,3.320416,205.216178,1.246335
LINE391,0.000000,0.023669,0.000000,3.593796,29.109178,1.247428
LINE392,0.000000,2.688094,0.000000,0.436386,0.000000,-1.161630
LINE393,0.000000,4.074351,30.795674,3.317541,0.000000,1.504878
LINE394,161.140536,-0.824435,94.660426,3.313104,28.867615,1.247924
LINE395,0.000000,2.546837,0.000000,0.074199,58.383117,1.247581
LINE396,223.369341,-0.830941,252.165729,3.320416,146.833124,1.245839
LINE397,0.000000,0.008016,0.000000,3.361263,29.109178,1.247428
LINE398,0.000000,2.751627,0.000000,0.535368,0.000000,-1.199745
LINE399,0.000000,0.233897,30.795674,3.317541,0.000000,1.488698
LINE400,161.140536,-0.824435,94.660426,3.313104,28.867615,1.247924
LINE401,0.000000,2.564541,0.000000,0.065925,58.383117,1.247581
LINE402,223.369341,-0.830941,252.165729,3.320416,146.833124,1.245839
LINE403,0.000000,0.370121,0.000000,3.910510,29.109178,1.247428
LINE404,0.000000,2.444746,0.000000,0.375930,0.000000,1.096092
LINE405,0.000000,2.440397,30.795674,3.317541,0.000000,1.310815
LINE406,161.140536,-0.824435,94.660426,3.313104,28.867615,1.247924
LINE407,0.000000,2.667894,0.000000,0.105645,58.383117,1.247581
LINE408,223.369341,-0.830941,252.165729,3.320416,146.833124,1.245839
LINE409,0.000000,-1.177300,0.000000,3.487538,0.000000,0.933967
LINE410,0.000000,2.637093,0.000000,1.409246,29.109178,1.247428
LINE411,0.000000,2.487433,0.000000,0.669800,0.000000,1.207902
LINE412,161.140536,-0.824435,94.660426,3.313104,28.867615,1.247924
LINE413,0.000000,2.584131,0.000000,0.127681,58.383117,1.247581
LINE414,223.369341,-0.830941,252.165729,3.320416,146.833124,1.245839
LINE415,0.000000,-1.111596,0.000000,3.488546,0.000000,0.937060
LINE416,0.000000,2.058882,0.000000,2.743364,29.109178,1.247428
LINE417,0.000000,2.685107,0.000000,-0.084477,0.000000,-1.283277
LINE418,161.140536,-0.824435,94.660426,3.313104,28.867615,1.247924
LINE419,0.000000,2.851644,0.000000,0.114432,58.383117,1.247581
LINE420,223.369341,-0.830941,252.165729,3.320416,146.833124,1.245839
LINE421,0.000000,-1.391570,0.000000,3.491229,0.000000,1.107606
LINE422,0.000000,2.176642,0.000000,0.835595,29.109178,1.247428
LINE423,0.000000,2.638070,0.000000,-0.300811,0.000000,-0.156536
LINE424,161.140536,-0.824435,94.660426,3.313104,28.867615,1.247924
LINE425,0.000000,1.405211,0.000000,1.183618,0.000000,4.323490
LINE426,0.000000,2.775877,0.000000,0.097150,58.383117,1.247581
LINE427,223.369341,-0.830941,252.165729,3.320416,146.833124,1.245839
LINE428,0.000000,-0.774655,0.000000,3.417642,0.000000,1.269130
LINE429,0.000000,2.247290,0.000000,0.613425,29.109178,1.247428
LINE430,0.000000,2.628232,0.000000,-0.443504,0.000000,-0.153047
LINE431,161.140536,-0.824435,94.660426,3.313104,28.867615,1.247924
LINE432,0.000000,4.547150,0.000000,1.427978,0.000000,1.499919
LINE433,0.000000,2.813540,0.000000,0.086175,58.383117,1.247581
LINE434,223.369341,-0.830941,252.165729,3.320416,146.833124,1.245839
LINE435,0.000000,-1.256458,0.000000,3.518563,0.000000,1.176303
LINE436,0.000000,2.315966,0.000000,-0.287941,29.109178,1.247428
LINE437,0.000000,2.683073,0.000000,-1.039704,0.000000,-0.103873
LINE438,161.140536,-0.824435,94.660426,3.313104,28.867615,1.247924
LINE439,0.000000,-0.023846,0.000000,-0.023846,0.000000,1.719619
LINE440,0.000000,2.807485,0.000000,0.096870,58.383117,1.247581
LINE441,223.369341,-0.830941,252.165729,3.320416,146.833124,1.245839
LINE442,0.000000,-1.492535,0.000000,3.516413,0.000000,1.019809
LINE443,0.000000,1.713619,0.000000,3.854745,29.109178,1.247428
LINE444,0.000000,2.892475,0.000000,-0.639557,0.000000,-1.449792
LINE445,161.140536,-0.824435,94.660426,3.313104,28.867615,1.247924
LINE446,0.000000,2.939912,0.000000,2.939912,0.000000,-0.145406
LINE447,0.000000,2.745465,0.000000,0.100629,58.383117,1.247581
LINE448,223.369341,-0.830941,252.165729,3.320416,146.833124,1.245839
LINE449,0.000000,4.220130,0.000000,3.523576,0.000000,0.660210
LINE450,0.000000,2.061365,0.000000,2.957862,29.109178,1.247428
LINE451,0.000000,2.818942,0.000000,-0.393374,0.000000,-1.131150
LINE452,161.140536,-0.824435,94.660426,3.313104,28.867615,1.247924
LINE453,0.000000,2.939912,0.000000,2.939912,0.000000,-0.145406
LINE454,0.000000,2.681043,0.000000,0.068587,58.383117,1.247581
LINE455,223.369341,-0.830941,252.165729,3.320416,146.833124,1.245839
LINE456,0.000000,-1.552834,0.000000,3.367046,0.000000,-0.517466
LINE457,0.000000,1.284611,0.000000,-1.529414,29.109178,1.247428
LINE458,0.000000,2.937087,0.000000,-0.152574,0.000000,-1.504034
LINE459,129.110888,-0.823713,94.660426,3.313104,28.867615,1.247924
LINE460,0.000000,4.242030,0.000000,-0.784226,0.000000,4.347800
LINE461,32.029818,-0.827345,0.000000,0.386671,0.000000,1.842551
LINE462,0.000000,2.642622,0.000000,0.061419,58.383117,1.247581
LINE463,223.369341,-0.830941,252.165729,3.320416,146.833124,1.245839
LINE464,0.000000,-0.891527,0.000000,3.400598,0.000000,0.909480
LINE465,0.000000,2.923618,0.000000,-0.065245,0.000000,-1.557511
LINE466,129.110888,-0.823713,94.660426,3.313104,28.867615,1.247924
LINE467,0.000000,1.945803,0.000000,4.300326,0.000000,1.072929
LINE468,0.000000,1.875219,0.000000,-0.461386,0.000000,0.839835
LINE469,32.029818,-0.827345,0.000000,0.352038,0.000000,1.783054
LINE470,0.000000,2.645848,0.000000,0.056921,58.383117,1.247581
LINE471,223.369341,-0.830941,252.165729,3.320416,146.833124,1.245839
LINE472,0.000000,-0.109356,0.000000,3.147869,0.000000,-0.500552
LINE473,0.000000,2.939976,0.000000,0.138578,0.000000,-1.531378
LINE474,129.110888,-0.823713,94.660426,3.313104,28.867615,1.247924
LINE475,0.000000,1.213655,0.000000,4.637627,0.000000,1.657141
LINE476,32.029818,-0.827345,0.000000,0.461990,0.000000,1.565632
LINE477,0.000000,2.589452,0.000000,0.090449,58.383117,1.247581
LINE478,223.369341,-0.830941,252.165729,3.320416,146.833124,1.245839
LINE479,0.000000,0.452104,0.000000,3.037770,0.000000,-0.506447
LINE480,0.000000,3.064231,0.000000,0.374335,0.000000,-1.558876
LINE481,64.621230,-0.822788,94.660426,3.313104,28.867615,1.247924
LINE482,0.000000,-1.225193,0.000000,4.660207,0.000000,1.676863
LINE483,64.489714,-0.824640,0.000000,0.054991,0.000000,-1.558957
LINE484,32.029818,-0.827345,0.000000,0.330763,0.000000,1.618626
LINE485,0.000000,2.572343,0.000000,0.098230,58.383117,1.247581
LINE486,223.369341,-0.830941,252.165729,3.320416,146.833124,1.245839
LINE487,0.000000,0.034744,0.000000,3.029007,0.000000,0.143757
LINE488,0.000000,3.546792,0.000000,4.664430,0.000000,1.553887
LINE489,64.621230,-0.822788,94.660426,3.313104,28.867615,1.247924
LINE490,0.000000,0.420907,0.000000,2.249495,0.000000,1.388310
LINE491,32.241706,-0.824664,0.000000,0.070084,0.000000,-1.557138
LINE492,32.248008,-0.824616,0.000000,-0.532017,0.000000,1.891629
LINE493,32.029818,-0.827345,0.000000,0.620206,0.000000,4.630182
LINE494,0.000000,2.234769,0.000000,0.077471,58.383117,1.247581
LINE495,223.369341,-0.830941,252.165729,3.320416,146.833124,1.245839
LINE496,0.000000,0.469800,0.000000,2.973015,0.000000,-0.470162
LINE497,0.000000,3.051761,0.000000,-0.050030,0.000000,4.698624
LINE498,64.621230,-0.822788,94.660426,3.313104,28.867615,1.247924
LINE499,0.000000,-0.201681,0.000000,-0.201681,0.000000,2.996186
LINE500,32.241706,-0.824664,0.000000,0.097383,0.000000,-1.547473
LINE501,32.248008,-0.824616,0.000000,0.277733,0.000000,4.629106
LINE502,32.029818,-0.827345,0.000000,0.589258,0.000000,1.538983
LINE503,0.000000,2.903573,0.000000,0.213410,58.383117,1.247581
LINE504,223.369341,-0.830941,252.165729,3.320416,146.833124,1.245839
LINE505,0.000000,0.747801,0.000000,2.896753,0.000000,-0.463870
LINE506,0.000000,0.000000,0.000000,0.000000,0.000000,0.000000
LINE507,64.621230,-0.822788,94.660426,3.313104,28.867615,1.247924
LINE508,0.000000,2.414945,0.000000,-0.366639,0.000000,1.678829
LINE509,32.241706,-0.824664,0.000000,0.091833,0.000000,-1.544313
LINE510,32.029818,-0.827345,0.000000,1.188013,0.000000,-0.214161
LINE511,0.000000,3.028576,0.000000,0.172394,58.383117,1.247581
LINE512,0.000000,1.575394,30.997926,3.320436,0.000000,4.562034
LINE513,223.369341,-0.830941,221.167802,3.320413,146.833124,1.245839
LINE514,0.000000,1.212235,0.000000,2.869205,0.000000,-0.687331
LINE515,0.000000,1.762367,94.660426,3.313104,28.867615,1.247924
LINE516,0.000000,4.663162,0.000000,1.154148,0.000000,1.700330
LINE517,64.621230,-0.822788,0.000000,4.354945,0.000000,1.393537
LINE518,32.241706,-0.824664,0.000000,0.189956,0.000000,-1.545283
LINE519,32.029818,-0.827345,0.000000,1.884764,0.000000,1.456767
LINE520,0.000000,2.324790,0.000000,0.282609,58.383117,1.247581
LINE521,0.000000,1.815466,30.997926,3.320436,0.000000,4.709016
LINE522,223.369341,-0.830941,221.167802,3.320413,146.833124,1.245839
LINE523,0.000000,0.263046,0.000000,2.977234,0.000000,-0.553763
LINE524,0.000000,1.774016,94.660426,3.313104,28.867615,1.247924
LINE525,0.000000,1.544609,0.000000,2.012617,0.000000,-1.408388
LINE526,64.621230,-0.822788,0.000000,4.359025,0.000000,1.396742
LINE527,32.241706,-0.824664,0.000000,0.208539,0.000000,-1.550819
LINE528,32.029818,-0.827345,0.000000,3.104166,0.000000,1.465346
LINE529,0.000000,3.610140,0.000000,0.321601,58.383117,1.247581
LINE530,223.369341,-0.830941,221.167802,3.320413,146.833124,1.245839
LINE531,0.000000,0.517062,0.000000,3.669969,0.000000,-0.159965
LINE532,0.000000,1.761719,94.660426,3.313104,28.867615,1.247924
LINE533,0.000000,2.939912,0.000000,2.939912,0.000000,-0.145406
LINE534,64.621230,-0.822788,0.000000,4.336120,0.000000,1.399054
LINE535,32.241706,-0.824664,0.000000,0.123098,0.000000,-1.560820
LINE536,32.029818,-0.827345,0.000000,3.359315,0.000000,1.556910
LINE537,0.000000,4.306687,0.000000,3.082973,29.200281,1.247654
LINE538,0.000000,4.627784,0.000000,1.520591,29.182837,1.247507
LINE539,223.369341,-0.830941,221.167802,3.320413,146.833124,1.245839
LINE540,0.000000,0.186431,0.000000,3.355957,0.000000,-0.066219
LINE541,0.000000,1.760123,94.660426,3.313104,28.867615,1.247924
LINE542,0.000000,-0.201681,0.000000,-0.201681,0.000000,2.996186
LINE543,64.621230,-0.822788,0.000000,4.355804,0.000000,1.385831
LINE544,32.241706,-0.824664,0.000000,4.221953,0.000000,4.687332
LINE545,32.029818,-0.827345,0.000000,3.343006,0.000000,1.544540
LINE546,0.000000,-0.886472,0.000000,3.707767,29.200281,1.247654
LINE547,223.369341,-0.830941,221.167802,3.320413,146.833124,1.245839
LINE548,0.000000,0.859093,0.000000,3.256248,0.000000,0.472977
LINE549,0.000000,1.771119,94.660426,3.313104,28.867615,1.247924
LINE550,0.000000,2.939912,0.000000,2.939912,0.000000,-0.145406
LINE551,32.309834,-0.822794,0.000000,3.945190,0.000000,1.425867
LINE552,32.311396,-0.822782,0.000000,1.784034,0.000000,-1.568974
LINE553,32.241706,-0.824664,0.000000,0.248400,0.000000,-1.542963
LINE554,32.029818,-0.827345,0.000000,3.342749,0.000000,1.523026
LINE555,0.000000,4.604986,0.000000,2.627445,29.200281,1.247654
LINE556,223.369341,-0.830941,221.167802,3.320413,146.833124,1.245839
LINE557,0.000000,1.975824,0.000000,2.975449,0.000000,0.883607
LINE558,0.000000,1.770981,94.660426,3.313104,28.867615,1.247924
LINE559,0.000000,-0.295870,0.000000,0.614926,0.000000,2.014956
LINE560,32.309834,-0.822794,0.000000,4.007275,0.000000,1.445671
LINE561,32.311396,-0.822782,0.000000,2.316134,0.000000,4.624360
LINE562,32.241706,-0.824664,0.000000,2.814690,0.000000,2.055187
LINE563,32.029818,-0.827345,0.000000,3.481860,0.000000,1.495790
LINE564,223.369341,-0.830941,221.167802,3.320413,146.833124,1.245839
LINE565,0.000000,-1.168132,0.000000,4.631943,0.000000,1.973698
LINE566,0.000000,1.664732,31.537000,3.313171,28.867615,1.247924
LINE567,0.000000,-0.334056,0.000000,3.037115,0.000000,-1.195771
LINE568,0.000000,2.314546,63.123426,3.313071,0.000000,4.662549
LINE569,32.309834,-0.822794,0.000000,3.905920,0.000000,1.420631
LINE570,32.029818,-0.827345,0.000000,3.204639,0.000000,1.324324
LINE571,223.369341,-0.830941,221.167802,3.320413,146.833124,1.245839
LINE572,0.000000,1.729803,31.537000,3.313171,28.867615,1.247924
LINE573,0.000000,-1.135995,0.000000,-0.305631,0.000000,1.573405
LINE574,0.000000,2.241564,63.123426,3.313071,0.000000,4.662960
LINE575,32.309834,-0.822794,0.000000,3.598253,0.000000,1.368291
LINE576,32.029818,-0.827345,0.000000,2.990695,0.000000,1.262963
LINE577,223.369341,-0.830941,221.167802,3.320413,146.833124,1.245839
LINE578,0.000000,3.568794,31.537000,3.313171,28.867615,1.247924
LINE579,0.000000,-0.135824,0.000000,2.939912,0.000000,-0.045558
LINE580,0.000000,1.634034,0.000000,0.746932,0.000000,0.649074
LINE581,0.000000,2.167017,63.123426,3.313071,0.000000,4.659449
LINE582,32.309834,-0.822794,0.000000,4.078083,0.000000,0.446932
LINE583,32.029818,-0.827345,0.000000,3.061251,0.000000,1.393293
LINE584,0.000000,-0.084817,31.054507,3.320545,0.000000,1.575796
LINE585,223.369341,-0.830941,190.113296,3.320391,146.833124,1.245839
LINE586,0.000000,3.943346,31.537000,3.313171,28.867615,1.247924
LINE587,0.000000,1.427978,0.000000,1.427978,0.000000,1.778572
LINE588,0.000000,1.587341,0.000000,0.668446,0.000000,1.316683
LINE589,0.000000,2.160520,63.123426,3.313071,0.000000,4.662033
LINE590,32.309834,-0.822794,0.000000,4.438602,0.000000,-1.471467
LINE591,32.029818,-0.827345,0.000000,4.193790,0.000000,1.108578
LINE592,0.000000,-0.111520,31.054507,3.320545,0.000000,1.574579
LINE593,223.369341,-0.830941,190.113296,3.320391,146.833124,1.245839
LINE594,0.000000,-0.417587,31.537000,3.313171,0.000000,1.403531
LINE595,0.000000,3.967241,0.000000,-1.336005,28.867615,1.247924
LINE596,0.000000,1.674468,0.000000,0.066965,0.000000,1.705614
LINE597,0.000000,2.154808,63.123426,3.313071,0.000000,4.656150
LINE598,32.309834,-0.822794,0.000000,4.007177,0.000000,1.559426
LINE599,32.029818,-0.827345,0.000000,3.965153,0.000000,1.392933
LINE600,0.000000,-0.206562,31.054507,3.320545,0.000000,1.576651
LINE601,0.000000,2.867926,0.000000,1.552908,29.238697,1.246136
LINE602,223.369341,-0.830941,190.113296,3.320391,117.594429,1.245765
LINE603,0.000000,0.396209,31.537000,3.313171,0.000000,1.446865
LINE604,0.000000,4.538347,0.000000,1.462592,0.000000,1.076585
LINE605,0.000000,2.939912,0.000000,2.939912,0.000000,-0.145406
LINE606,0.000000,-0.791597,0.000000,3.255420,28.867615,1.247924
LINE607,0.000000,2.992017,0.000000,2.992017,0.000000,-0.075346
LINE608,0.000000,1.710429,0.000000,-0.320824,0.000000,1.155165
LINE609,0.000000,2.150462,63.123426,3.313071,0.000000,4.655434
LINE610,32.309834,-0.822794,0.000000,2.774314,0.000000,1.538423
LINE611,32.029818,-0.827345,0.000000,-0.541827,0.000000,1.468315
LINE612,0.000000,-0.100089,31.054507,3.320545,0.000000,1.561629
LINE613,0.000000,-0.268594,0.000000,3.287840,29.238697,1.246136
LINE614,223.369341,-0.830941,190.113296,3.320391,117.594429,1.245765
LINE615,0.000000,-0.655521,31.537000,3.313171,0.000000,1.639921
LINE616,0.000000,3.695026,0.000000,-0.557009,0.000000,-1.106088
LINE617,0.000000,-0.201681,0.000000,-0.201681,0.000000,2.996186
LINE618,0.000000,4.199971,0.000000,0.015705,28.867615,1.247924
LINE619,0.000000,1.903327,0.000000,-0.979364,0.000000,-1.499363
LINE620,0.000000,2.188178,63.123426,3.313071,0.000000,4.654960
LINE621,32.029818,-0.827345,0.000000,3.968197,0.000000,1.439697
LINE622,0.000000,-0.088991,31.054507,3.320545,0.000000,1.574816
LINE623,0.000000,-0.966497,31.165253,3.319646,0.000000,1.780559
LINE624,223.369341,-0.830941,158.948053,3.320537,117.594429,1.245765
LINE625,0.000000,-0.678245,31.537000,3.313171,0.000000,1.650639
LINE626,0.000000,2.199304,0.000000,-0.613633,0.000000,-0.055095
LINE627,0.000000,2.223229,63.123426,3.313071,0.000000,4.661215
LINE628,32.029818,-0.827345,0.000000,0.596987,0.000000,1.577580
LINE629,0.000000,0.052871,31.054507,3.320545,0.000000,1.587286
LINE630,0.000000,-0.560336,31.165253,3.319646,0.000000,4.338836
LINE631,223.369341,-0.830941,158.948053,3.320537,117.594429,1.245765
LINE632,0.000000,-0.067519,31.537000,3.313171,0.000000,3.074074
LINE633,0.000000,2.117627,0.000000,-0.352172,0.000000,4.683026
LINE634,0.000000,2.058948,63.123426,3.313071,0.000000,4.659492
LINE635,0.000000,-0.093309,31.054507,3.320545,0.000000,1.591077
LINE636,0.000000,-0.065401,31.165253,3.319646,0.000000,1.766996
LINE637,223.369341,-0.830941,158.948053,3.320537,117.594429,1.245765
LINE638,0.000000,0.000000,31.537000,3.313171,0.000000,3.074074
LINE639,0.000000,0.933924,0.000000,-0.424694,0.000000,-1.431887
LINE640,0.000000,2.094368,63.123426,3.313071,0.000000,4.652243
LINE641,0.000000,-0.128600,31.054507,3.320545,0.000000,1.592035
LINE642,0.000000,0.048352,31.165253,3.319646,0.000000,1.663974
LINE643,223.369341,-0.830941,158.948053,3.320537,117.594429,1.245765
LINE644,0.000000,-0.265257,0.000000,-0.714007,0.000000,2.378774
LINE645,0.000000,2.147179,63.123426,3.313071,0.000000,4.648396
LINE646,0.000000,-0.248741,31.054507,3.320545,0.000000,1.598658
LINE647,0.000000,0.212009,31.165253,3.319646,0.000000,1.663743
LINE648,223.369341,-0.830941,158.948053,3.320537,117.594429,1.245765
LINE649,0.000000,3.594870,0.000000,0.177041,0.000000,4.659746
LINE650,0.000000,2.095869,63.123426,3.313071,0.000000,4.658846
LINE651,0.000000,-0.195555,31.054507,3.320545,0.000000,1.595274
LINE652,0.000000,0.485379,31.165253,3.319646,0.000000,1.671682
LINE653,223.369341,-0.830941,158.948053,3.320537,117.594429,1.245765
LINE654,0.000000,-1.395642,0.000000,-1.560420,0.000000,4.045805
LINE655,0.000000,2.700355,31.563486,3.313085,0.000000,4.696371
LINE656,0.000000,0.035014,31.559940,3.313057,0.000000,1.670176
LINE657,0.000000,-0.440026,31.054507,3.320545,0.000000,1.597360
LINE658,0.000000,0.350937,31.165253,3.319646,0.000000,2.302070
LINE659,223.369341,-0.830941,158.948053,3.320537,117.594429,1.245765
LINE660,0.000000,4.205923,0.000000,-1.521211,0.000000,1.347634
LINE661,0.000000,2.853400,31.563486,3.313085,0.000000,1.952099
LINE662,0.000000,2.347807,31.559940,3.313057,0.000000,4.585037
LINE663,0.000000,-0.316244,31.054507,3.320545,0.000000,1.609043
LINE664,0.000000,-0.201143,31.165253,3.319646,0.000000,2.201313
LINE665,223.369341,-0.830941,158.948053,3.320537,117.594429,1.245765
LINE666,0.000000,-0.512888,0.000000,-1.433824,0.000000,1.921377
LINE667,0.000000,-0.915084,31.563486,3.313085,0.000000,1.070602
LINE668,0.000000,2.856420,31.559940,3.313057,0.000000,1.844797
LINE669,0.000000,-0.434809,31.054507,3.320545,0.000000,1.605162
LINE670,0.000000,-0.592900,31.165253,3.319646,0.000000,1.613124
LINE671,95.445510,-0.833264,0.000000,-0.353387,0.000000,1.578439
LINE672,127.924281,-0.829207,158.948053,3.320537,117.594429,1.245765
LINE673,0.000000,3.380360,0.000000,3.967286,0.000000,2.248709
LINE674,0.000000,1.128355,31.563486,3.313085,0.000000,1.675672
LINE675,0.000000,3.213149,31.559940,3.313057,0.000000,-1.359049
LINE676,0.000000,-0.530729,31.054507,3.320545,0.000000,1.591064
LINE677,0.000000,3.905014,31.165253,3.319646,0.000000,4.592674
LINE678,95.445510,-0.833264,0.000000,-0.323655,0.000000,1.585931
LINE679,127.924281,-0.829207,158.948053,3.320537,117.594429,1.245765
LINE680,0.000000,-0.201681,0.000000,-0.201681,0.000000,2.996186
LINE681,0.000000,-0.855696,31.563486,3.313085,0.000000,1.446591
LINE682,0.000000,-0.384222,31.054507,3.320545,0.000000,1.596100
LINE683,0.000000,1.043071,31.165253,3.319646,0.000000,1.588030
LINE684,95.445510,-0.833264,0.000000,-0.327317,0.000000,1.590711
LINE685,127.924281,-0.829207,158.948053,3.320537,117.594429,1.245765
LINE686,0.000000,-0.377414,31.054507,3.320545,0.000000,1.597447
LINE687,0.000000,1.539642,31.165253,3.319646,0.000000,4.662636
LINE688,95.445510,-0.833264,0.000000,-0.396976,0.000000,1.616508
LINE689,0.000000,-0.644285,0.000000,0.710225,58.669002,1.246442
LINE690,127.924281,-0.829207,158.948053,3.320537,58.925453,1.245091
LINE691,0.000000,-0.422836,31.054507,3.320545,0.000000,1.596025
LINE692,95.445510,-0.833264,0.000000,-0.638208,0.000000,1.508789
LINE693,0.000000,-0.603102,0.000000,0.671447,29.336391,1.246458
LINE694,0.000000,0.038116,0.000000,4.496676,29.332611,1.246426
LINE695,0.000000,-0.372065,31.356617,3.319385,0.000000,0.717746
LINE696,127.924281,-0.829207,127.591462,3.320820,58.925453,1.245091
LINE697,0.000000,-0.449023,31.054507,3.320545,0.000000,1.589487
LINE698,95.445510,-0.833264,0.000000,-0.544027,0.000000,1.516319
LINE699,0.000000,-0.808770,0.000000,0.686482,29.336391,1.246458
LINE700,0.000000,-0.409723,0.000000,0.858227,29.332611,1.246426
LINE701,0.000000,3.254490,31.356617,3.319385,0.000000,1.451297
LINE702,127.924281,-0.829207,127.591462,3.320820,58.925453,1.245091
LINE703,0.000000,-0.390394,31.054507,3.320545,0.000000,1.596048
LINE704,95.445510,-0.833264,0.000000,-0.202225,0.000000,1.196121
LINE705,0.000000,-0.682941,0.000000,0.765140,29.336391,1.246458
LINE706,127.924281,-0.829207,127.591462,3.320820,58.925453,1.245091
LINE707,0.000000,2.923137,0.000000,0.591967,0.000000,-1.557022
LINE708,0.000000,-0.377264,31.054507,3.320545,0.000000,1.595635
LINE709,95.445510,-0.833264,0.000000,-0.242902,0.000000,1.235255
LINE710,0.000000,-0.373814,0.000000,1.260074,29.336391,1.246458
LINE711,64.155674,-0.827067,127.591462,3.320820,58.925453,1.245091
LINE712,63.768901,-0.831361,0.000000,-1.471741,0.000000,1.693985
LINE713,0.000000,2.989557,0.000000,0.146928,0.000000,-1.385507
LINE714,0.000000,-0.226465,31.054507,3.320545,0.000000,1.614080
LINE715,95.445510,-0.833264,0.000000,-0.257046,0.000000,1.286133
LINE716,0.000000,-0.369819,0.000000,1.305666,29.336391,1.246458
LINE717,64.155674,-0.827067,127.591462,3.320820,58.925453,1.245091
LINE718,63.768901,-0.831361,0.000000,-1.416063,0.000000,1.691424
LINE719,0.000000,2.810494,0.000000,0.307296,0.000000,-1.446606
LINE720,0.000000,-0.413860,31.054507,3.320545,0.000000,1.586291
LINE721,95.445510,-0.833264,0.000000,-0.238265,0.000000,1.231604
LINE722,0.000000,0.258023,0.000000,0.883992,29.336391,1.246458
LINE723,64.155674,-0.827067,64.137568,3.320944,58.925453,1.245091
LINE724,0.000000,-0.940239,63.453895,3.320696,0.000000,1.470865
LINE725,63.768901,-0.831361,0.000000,4.459442,0.000000,1.652026
LINE726,0.000000,2.747262,0.000000,0.327240,0.000000,-1.145043
LINE727,0.000000,0.027420,31.054507,3.320545,0.000000,1.583385
LINE728,95.445510,-0.833264,0.000000,-0.213029,0.000000,1.173503
LINE729,0.000000,0.402371,0.000000,1.129210,29.336391,1.246458
LINE730,64.155674,-0.827067,64.137568,3.320944,58.925453,1.245091
LINE731,0.000000,-0.925116,63.453895,3.320696,0.000000,1.470251
LINE732,63.768901,-0.831361,0.000000,-1.504433,0.000000,1.649346
LINE733,0.000000,2.598501,0.000000,0.598376,0.000000,-1.370752
LINE734,0.000000,-0.094831,31.054507,3.320545,0.000000,1.555968
LINE735,95.445510,-0.833264,0.000000,-0.181776,0.000000,0.872781
LINE736,0.000000,1.923331,0.000000,1.141292,29.336391,1.246458
LINE737,64.155674,-0.827067,64.137568,3.320944,58.925453,1.245091
LINE738,0.000000,-0.963745,63.453895,3.320696,0.000000,1.468240
LINE739,63.768901,-0.831361,0.000000,-1.343757,0.000000,1.666912
LINE740,0.000000,2.777294,0.000000,0.069404,0.000000,-1.378928
LINE741,0.000000,-0.010563,31.054507,3.320545,0.000000,1.615405
LINE742,95.445510,-0.833264,0.000000,-0.160698,0.000000,-0.960113
LINE743,0.000000,0.346469,0.000000,3.223295,29.336391,1.246458
LINE744,64.155674,-0.827067,64.137568,3.320944,58.925453,1.245091
LINE745,0.000000,3.691615,31.729660,3.320717,0.000000,1.321027
LINE746,0.000000,-0.880818,31.724235,3.320674,0.000000,1.480853
LINE747,63.768901,-0.831361,0.000000,-1.095723,0.000000,1.671222
LINE748,0.000000,2.599102,0.000000,0.078119,0.000000,-1.159256
LINE749,0.000000,-0.016890,31.054507,3.320545,0.000000,1.517475
LINE750,95.445510,-0.833264,0.000000,-0.114391,0.000000,-1.532972
LINE751,0.000000,1.095915,0.000000,2.977997,29.336391,1.246458
LINE752,64.155674,-0.827067,64.137568,3.320944,0.000000,1.480634
LINE753,0.000000,-0.659306,0.000000,3.357439,58.925453,1.245091
LINE754,0.000000,2.852672,31.729660,3.320717,0.000000,1.790549
LINE755,0.000000,-0.150108,31.724235,3.320674,0.000000,1.529556
LINE756,63.768901,-0.831361,0.000000,-1.083031,0.000000,1.682646
LINE757,0.000000,2.566855,0.000000,0.050087,0.000000,-1.109385
LINE758,0.000000,1.613626,31.054507,3.320545,0.000000,4.642137
LINE759,95.445510,-0.833264,0.000000,-0.043740,0.000000,-1.418289
LINE760,0.000000,3.828855,0.000000,0.731742,29.336391,1.246458
LINE761,64.155674,-0.827067,64.137568,3.320944,0.000000,1.479675
LINE762,0.000000,-0.661320,0.000000,3.356716,58.925453,1.245091
LINE763,0.000000,0.214238,31.724235,3.320674,0.000000,1.553030
LINE764,63.768901,-0.831361,0.000000,-1.265591,0.000000,1.682501
LINE765,0.000000,2.860542,0.000000,0.125399,0.000000,-1.349928
LINE766,0.000000,-0.155902,31.054507,3.320545,0.000000,1.588266
LINE767,95.445510,-0.833264,0.000000,-0.077868,0.000000,-0.793342
LINE768,0.000000,3.469634,0.000000,3.263321,29.336391,1.246458
LINE769,64.155674,-0.827067,64.137568,3.320944,0.000000,1.470522
LINE770,0.000000,-0.313164,0.000000,3.107894,29.465854,1.245118
LINE771,0.000000,-0.620321,0.000000,3.391877,29.459599,1.245065
LINE772,0.000000,0.337801,31.724235,3.320674,0.000000,1.496806
LINE773,63.768901,-0.831361,0.000000,-1.467761,0.000000,1.663599
LINE774,0.000000,2.725536,0.000000,0.093274,0.000000,-1.208292
LINE775,0.000000,-0.834470,31.054507,3.320545,0.000000,1.454465
LINE776,95.445510,-0.833264,0.000000,-0.073641,0.000000,-1.252503
LINE777,0.000000,2.641051,0.000000,2.641051,29.336391,1.246458
LINE778,64.155674,-0.827067,64.137568,3.320944,0.000000,1.465920
LINE779,0.000000,0.193588,0.000000,-0.497249,29.465854,1.245118
LINE780,0.000000,-0.677200,0.000000,3.380576,29.459599,1.245065
LINE781,0.000000,3.257121,31.724235,3.320674,0.000000,1.403685
LINE782,63.768901,-0.831361,0.000000,-1.466904,0.000000,1.669743
LINE783,0.000000,2.883375,0.000000,0.203005,0.000000,-1.007260
LINE784,0.000000,1.565275,31.054507,3.320545,0.000000,4.670917
LINE785,95.445510,-0.833264,0.000000,-0.125167,0.000000,-1.108781
LINE786,64.155674,-0.827067,64.137568,3.320944,0.000000,1.488434
LINE787,0.000000,-0.587416,0.000000,3.312677,29.459599,1.245065
LINE788,0.000000,-1.139834,31.724235,3.320674,0.000000,-1.501559
LINE789,63.768901,-0.831361,0.000000,-1.438076,0.000000,1.669096
LINE790,0.000000,3.636030,0.000000,-0.351697,0.000000,0.503598
LINE791,63.630247,-0.833264,0.000000,-0.206133,0.000000,-1.203892
LINE792,31.815263,-0.833263,0.000000,1.705059,0.000000,4.681139
LINE793,64.155674,-0.827067,64.137568,3.320944,0.000000,1.509449
LINE794,0.000000,-0.474835,0.000000,3.318792,29.459599,1.245065
LINE795,0.000000,3.524801,31.724235,3.320674,0.000000,-0.860403
LINE796,63.768901,-0.831361,0.000000,-1.297473,0.000000,1.675672
LINE797,0.000000,-0.985542,0.000000,0.257761,0.000000,0.826263
LINE798,63.630247,-0.833264,0.000000,-0.359055,0.000000,-0.884713
LINE799,31.815263,-0.833263,0.000000,3.231315,0.000000,2.187181
LINE800,64.155674,-0.827067,0.000000,3.049286,0.000000,1.740126
LINE801,0.000000,3.302573,64.137568,3.320944,0.000000,-0.562637
LINE802,0.000000,-0.428610,0.000000,3.919037,29.459599,1.245065
LINE803,0.000000,2.431632,31.724235,3.320674,0.000000,1.598350
LINE804,63.768901,-0.831361,0.000000,-1.501564,0.000000,1.629071
LINE805,0.000000,2.157599,0.000000,0.747836,0.000000,-0.015940
LINE806,63.630247,-0.833264,0.000000,-0.231933,0.000000,1.071785
LINE807,31.815263,-0.833263,0.000000,1.787652,0.000000,4.403598
LINE808,64.155674,-0.827067,0.000000,2.966493,0.000000,1.802097
LINE809,0.000000,3.285967,64.137568,3.320944,0.000000,-0.402430
LINE810,0.000000,-0.011331,0.000000,-0.011331,0.000000,-0.096518
LINE811,0.000000,1.413865,0.000000,4.674065,29.459599,1.245065
LINE812,0.000000,4.400983,31.724235,3.320674,0.000000,4.613621
LINE813,63.768901,-0.831361,0.000000,-1.303161,0.000000,1.631949
LINE814,0.000000,2.975708,0.000000,0.002806,0.000000,1.737129
LINE815,63.630247,-0.833264,0.000000,-0.211192,0.000000,1.276377
LINE816,31.815263,-0.833263,0.000000,-0.120828,0.000000,3.198471
LINE817,64.155674,-0.827067,0.000000,2.941903,0.000000,1.793299
LINE818,0.000000,3.267909,64.137568,3.320944,0.000000,-0.337944
LINE819,0.000000,3.799496,0.000000,2.751697,0.000000,1.346939
LINE820,0.000000,-0.317699,0.000000,-0.317699,29.459599,1.245065
LINE821,63.768901,-0.831361,0.000000,-1.558788,0.000000,1.599278
LINE822,0.000000,3.759671,0.000000,-0.241378,0.000000,1.661760
LINE823,63.630247,-0.833264,0.000000,-0.299959,0.000000,1.464658
LINE824,64.155674,-0.827067,0.000000,2.761157,0.000000,1.890467
LINE825,0.000000,3.231026,64.137568,3.320944,0.000000,-0.491078
LINE826,0.000000,3.349465,0.000000,0.370498,0.000000,-1.300186
LINE827,0.000000,4.011121,0.000000,2.624989,29.459599,1.245065
LINE828,63.768901,-0.831361,0.000000,-1.498969,0.000000,1.600085
LINE829,0.000000,4.576510,0.000000,1.337876,0.000000,1.471471
LINE830,63.630247,-0.833264,0.000000,-0.374089,0.000000,1.489998
LINE831,64.155674,-0.827067,0.000000,2.524328,0.000000,2.478171
LINE832,0.000000,3.326063,64.137568,3.320944,0.000000,-0.499154
LINE833,0.000000,2.939912,0.000000,2.939912,0.000000,-0.145406
LINE834,0.000000,3.388951,0.000000,3.995880,29.459599,1.245065
LINE835,63.768901,-0.831361,0.000000,-1.559345,0.000000,1.577621
LINE836,63.630247,-0.833264,0.000000,-0.148015,0.000000,1.529233
LINE837,64.155674,-0.827067,0.000000,2.251927,0.000000,4.186306
LINE838,0.000000,3.491569,64.137568,3.320944,0.000000,-0.201431
LINE839,0.000000,2.939912,0.000000,2.939912,0.000000,-0.145406
LINE840,63.768901,-0.831361,0.000000,4.677886,0.000000,1.578990
LINE841,63.630247,-0.833264,0.000000,-0.699093,0.000000,1.557380
LINE842,64.155674,-0.827067,0.000000,1.686181,0.000000,4.456871
LINE843,0.000000,3.729770,64.137568,3.320944,0.000000,1.804868
LINE844,0.000000,0.402051,0.000000,3.968172,0.000000,0.245425
LINE845,0.000000,2.939912,0.000000,2.939912,0.000000,-0.145406
LINE846,63.768901,-0.831361,0.000000,4.639562,0.000000,1.580774
LINE847,63.630247,-0.833264,0.000000,-0.932359,0.000000,1.578597
LINE848,64.155674,-0.827067,0.000000,1.429475,0.000000,4.568718
LINE849,0.000000,3.717575,64.137568,3.320944,0.000000,1.713660
LINE850,0.000000,0.048377,0.000000,4.007872,0.000000,0.733550
LINE851,0.000000,0.000000,0.000000,0.000000,0.000000,0.000000
LINE852,63.768901,-0.831361,0.000000,-1.542037,0.000000,1.601950
LINE853,63.630247,-0.833264,0.000000,3.320601,0.000000,1.551750
LINE854,64.155674,-0.827067,0.000000,2.059400,0.000000,4.620977
LINE855,0.000000,3.717575,64.137568,3.320944,0.000000,1.624555
LINE856,0.000000,-0.074731,0.000000,4.035698,0.000000,0.870473
LINE857,0.000000,3.027516,0.000000,3.027516,0.000000,-0.223676
LINE858,63.768901,-0.831361,0.000000,4.413366,0.000000,1.691493
LINE859,31.802571,-0.833361,0.000000,2.594338,0.000000,4.667033
LINE860,31.827676,-0.833167,0.000000,3.207533,0.000000,-1.181185
LINE861,64.155674,-0.827067,0.000000,2.007469,0.000000,4.630183
LINE862,0.000000,3.684800,64.137568,3.320944,0.000000,1.627633
LINE863,0.000000,-0.109173,0.000000,3.973747,0.000000,0.851836
LINE864,0.000000,-0.201681,0.000000,-0.201681,0.000000,2.996186
LINE865,63.768901,-0.831361,0.000000,4.683675,0.000000,1.781970
LINE866,64.155674,-0.827067,0.000000,1.761930,0.000000,4.627460
LINE867,0.000000,4.056868,64.137568,3.320944,0.000000,1.630708
LINE868,0.000000,0.082243,0.000000,3.815000,0.000000,0.483428
LINE869,0.000000,0.000000,0.000000,0.000000,0.000000,0.000000
LINE870,63.768901,-0.831361,0.000000,-0.377843,0.000000,1.845794
LINE871,64.155674,-0.827067,0.000000,2.332796,0.000000,4.629561
LINE872,0.000000,4.056868,32.074181,3.320987,0.000000,1.726079
LINE873,0.000000,1.503278,32.063386,3.320901,0.000000,1.642987
LINE874,0.000000,-0.161150,0.000000,3.770214,0.000000,-0.710786
LINE875,0.000000,1.393699,0.000000,4.642650,0.000000,1.723037
LINE876,63.768901,-0.831361,0.000000,-0.243865,0.000000,1.542464
LINE877,64.155674,-0.827067,0.000000,2.046214,0.000000,4.632707
LINE878,0.000000,4.644870,32.074181,3.320987,0.000000,3.074074
LINE879,0.000000,-0.067519,32.063386,3.320901,0.000000,-0.067519
LINE880,0.000000,4.696056,0.000000,1.079089,0.000000,1.754923
LINE881,0.000000,-1.109274,0.000000,1.188378,0.000000,3.361117
LINE882,63.768901,-0.831361,0.000000,-0.383379,0.000000,1.656162
LINE883,64.155674,-0.827067,0.000000,1.627314,0.000000,4.632754
LINE884,0.000000,3.537722,32.074181,3.320987,0.000000,4.691711
LINE885,0.000000,0.000000,32.063386,3.320901,0.000000,0.000000
LINE886,63.768901,-0.831361,0.000000,-0.995223,0.000000,-1.500210
LINE887,32.079587,-0.827030,0.000000,4.132540,0.000000,4.592359
LINE888,32.076087,-0.827104,0.000000,3.541949,0.000000,1.331181
LINE889,0.000000,3.074074,32.074181,3.320987,0.000000,4.683913
LINE890,63.768901,-0.831361,0.000000,4.056047,0.000000,1.488067
LINE891,32.079587,-0.827030,0.000000,4.261757,0.000000,4.585043
LINE892,32.076087,-0.827104,0.000000,3.700324,0.000000,1.876843
LINE893,0.000000,3.074074,32.074181,3.320987,0.000000,-0.067519
LINE894,31.901793,-0.831226,0.000000,-0.829855,0.000000,1.521925
LINE895,31.867109,-0.831495,0.000000,3.965572,0.000000,1.580574
LINE896,32.079587,-0.827030,0.000000,0.253262,0.000000,4.655084
LINE897,32.076087,-0.827104,0.000000,2.336032,0.000000,2.503724
LINE898,0.000000,0.000000,32.074181,3.320987,0.000000,0.000000
LINE899,31.901793,-0.831226,0.000000,3.065465,0.000000,1.282156
LINE900,32.079587,-0.827030,0.000000,4.443706,0.000000,4.667612
LINE901,32.079587,-0.827030,0.000000,2.797919,0.000000,4.700541
LINE902,32.079587,-0.827030,0.000000,-1.199178,0.000000,1.533911
LINE903,32.079587,-0.827030,0.000000,-1.472186,0.000000,1.611476
LINE904,32.079587,-0.827030,0.000000,-1.075680,0.000000,1.609783
LINE905,32.079587,-0.827030,0.000000,1.893481,0.000000,1.436311
